Circuit: * C:\users\gfl\Meine Dokumente\digi_elektro\Abhoermodul\info\Spannungsteiler.asc

Direct Newton iteration for .op point succeeded.

Date: Sun Jan 21 20:37:10 2024
Total elapsed time: 0.051 seconds.

tnom = 27
temp = 27
method = modified trap
totiter = 2085
traniter = 2082
tranpoints = 1042
accept = 1042
rejected = 0
matrix size = 7
fillins = 0
solver = Normal
Matrix Compiler1: off  [0.1]/0.2/0.1
Matrix Compiler2: off  [0.1]/0.2/0.2

