Circuit: * C:\users\gfl\Meine Dokumente\digi_elektro\Abhoermodul\info\Spannungsteiler.asc


Date: Sun Jan 07 18:46:26 2024
Total elapsed time: 0.063 seconds.

tnom = 27
temp = 27
method = trap
totiter = 0
traniter = 0
tranpoints = 0
accept = 0
rejected = 0
matrix size = 7
fillins = 6
solver = Normal

